@<TRIPOS>MOLECULE
9P6
   65    68     0     0     0
SMALL
NO_CHARGES

@<TRIPOS>ATOM
      1 C1         -0.9770   -2.3860   -0.5970 C.2       1 9P6_ideal         0.0000
      2 C2         -1.4590   -1.0750   -0.4120 C.2       1 9P6_ideal         0.0000
      3 C3         -2.8200   -1.1720   -0.1410 C.2       1 9P6_ideal         0.0000
      4 C4         -0.6670    0.1690   -0.4900 C.2       1 9P6_ideal         0.0000
      5 N1         -3.1360   -2.4970   -0.1640 N.pl3     1 9P6_ideal         0.0000
      6 N2         -1.9720   -3.2180   -0.4490 N.2       1 9P6_ideal         0.0000
      7 C5          1.1460    1.4380   -0.7740 C.2       1 9P6_ideal         0.0000
      8 C6          0.3140    2.4550   -0.5390 C.2       1 9P6_ideal         0.0000
      9 C7         -4.4650   -3.0670    0.0680 C.3       1 9P6_ideal         0.0000
     10 C8         -5.4530   -2.4910   -0.9480 C.3       1 9P6_ideal         0.0000
     11 C9         -4.4020   -4.5880   -0.0880 C.3       1 9P6_ideal         0.0000
     12 C10        -3.7460   -0.0520    0.1220 C.ar      1 9P6_ideal         0.0000
     13 C11        -4.3680    0.6070   -0.9420 C.ar      1 9P6_ideal         0.0000
     14 O1          2.8850    0.1580    0.7480 O.2       1 9P6_ideal         0.0000
     15 C12         3.4340    0.8410   -0.0900 C.2       1 9P6_ideal         0.0000
     16 N3          4.7800    0.8760   -0.1550 N.am      1 9P6_ideal         0.0000
     17 C13         5.5790    0.0890    0.7860 C.3       1 9P6_ideal         0.0000
     18 C14         7.0660    0.3060    0.4980 C.3       1 9P6_ideal         0.0000
     19 C15         7.9040   -0.4170    1.5580 C.3       1 9P6_ideal         0.0000
     20 C16         9.3890   -0.2600    1.2170 C.3       1 9P6_ideal         0.0000
     21 O2          9.6330   -0.7800   -0.0920 O.3       1 9P6_ideal         0.0000
     22 C17         8.9120   -0.1120   -1.1290 C.3       1 9P6_ideal         0.0000
     23 C18         7.4090   -0.2620   -0.8830 C.3       1 9P6_ideal         0.0000
     24 C19         2.6110    1.6510   -1.0580 C.3       1 9P6_ideal         0.0000
     25 N4          0.6090    0.2380   -0.7450 N.2       1 9P6_ideal         0.0000
     26 S1         -1.2970    1.7980   -0.2610 S.3       1 9P6_ideal         0.0000
     27 C20        -4.9290   -2.7190    1.4840 C.3       1 9P6_ideal         0.0000
     28 C21        -4.0060    0.3480    1.4340 C.ar      1 9P6_ideal         0.0000
     29 C22        -4.8750    1.3910    1.6750 C.ar      1 9P6_ideal         0.0000
     30 C23        -5.4910    2.0430    0.6150 C.ar      1 9P6_ideal         0.0000
     31 O3         -6.3460    3.0700    0.8570 O.3       1 9P6_ideal         0.0000
     32 C24        -6.9460    3.6970   -0.2790 C.3       1 9P6_ideal         0.0000
     33 C25        -5.2310    1.6520   -0.6920 C.ar      1 9P6_ideal         0.0000
     34 H1          0.0430   -2.6560   -0.8260 H         1 9P6_ideal         0.0000
     35 H2          0.5820    3.5010   -0.5240 H         1 9P6_ideal         0.0000
     36 H3         -5.1770   -2.8200   -1.9500 H         1 9P6_ideal         0.0000
     37 H4         -6.4590   -2.8390   -0.7150 H         1 9P6_ideal         0.0000
     38 H5         -5.4260   -1.4020   -0.9040 H         1 9P6_ideal         0.0000
     39 H6         -3.6990   -4.9990    0.6360 H         1 9P6_ideal         0.0000
     40 H7         -5.3910   -5.0120    0.0850 H         1 9P6_ideal         0.0000
     41 H8         -4.0720   -4.8360   -1.0960 H         1 9P6_ideal         0.0000
     42 H9         -4.1720    0.2980   -1.9580 H         1 9P6_ideal         0.0000
     43 H10         5.2190    1.4230   -0.8260 H         1 9P6_ideal         0.0000
     44 H11         5.3570    0.4050    1.8050 H         1 9P6_ideal         0.0000
     45 H12         5.3380   -0.9680    0.6730 H         1 9P6_ideal         0.0000
     46 H13         7.2900    1.3720    0.5210 H         1 9P6_ideal         0.0000
     47 H14         7.7070    0.0190    2.5370 H         1 9P6_ideal         0.0000
     48 H15         7.6430   -1.4750    1.5690 H         1 9P6_ideal         0.0000
     49 H16         9.6580    0.7950    1.2450 H         1 9P6_ideal         0.0000
     50 H17         9.9880   -0.8080    1.9440 H         1 9P6_ideal         0.0000
     51 H18         9.1760    0.9460   -1.1320 H         1 9P6_ideal         0.0000
     52 H19         9.1690   -0.5530   -2.0920 H         1 9P6_ideal         0.0000
     53 H20         7.1370   -1.3170   -0.9200 H         1 9P6_ideal         0.0000
     54 H21         6.8580    0.2840   -1.6480 H         1 9P6_ideal         0.0000
     55 H22         2.8340    1.3350   -2.0770 H         1 9P6_ideal         0.0000
     56 H23         2.8530    2.7080   -0.9450 H         1 9P6_ideal         0.0000
     57 H24        -5.0780   -1.6420    1.5630 H         1 9P6_ideal         0.0000
     58 H25        -5.8680   -3.2310    1.6960 H         1 9P6_ideal         0.0000
     59 H26        -4.1730   -3.0350    2.2020 H         1 9P6_ideal         0.0000
     60 H27        -3.5270   -0.1580    2.2590 H         1 9P6_ideal         0.0000
     61 H28        -5.0800    1.6980    2.6900 H         1 9P6_ideal         0.0000
     62 H29        -7.6050    4.4980    0.0540 H         1 9P6_ideal         0.0000
     63 H30        -6.1670    4.1090   -0.9190 H         1 9P6_ideal         0.0000
     64 H31        -7.5230    2.9600   -0.8370 H         1 9P6_ideal         0.0000
     65 H32        -5.7120    2.1610   -1.5130 H         1 9P6_ideal         0.0000
@<TRIPOS>BOND
     1   22   23 1
     2   18   23 1
     3   14   15 2
     4   21   22 1
     5   17   18 1
     6   16   17 1
     7   18   19 1
     8   15   16 am
     9   15   24 1
    10   20   21 1
    11   19   20 1
    12    7   24 1
    13    7    8 2
    14    8   26 1
    15    7   25 1
    16   31   32 1
    17    4   26 1
    18    4   25 2
    19    2    4 1
    20   30   31 1
    21   29   30 ar
    22   28   29 ar
    23   30   33 ar
    24   12   28 ar
    25    2    3 2
    26    1    2 1
    27   13   33 ar
    28   12   13 ar
    29    3   12 1
    30    3    5 1
    31    1    6 2
    32    5    6 1
    33    5    9 1
    34    9   11 1
    35    9   10 1
    36    9   27 1
    37    1   34 1
    38    8   35 1
    39   10   36 1
    40   10   37 1
    41   10   38 1
    42   11   39 1
    43   11   40 1
    44   11   41 1
    45   13   42 1
    46   16   43 1
    47   17   44 1
    48   17   45 1
    49   18   46 1
    50   19   47 1
    51   19   48 1
    52   20   49 1
    53   20   50 1
    54   22   51 1
    55   22   52 1
    56   23   53 1
    57   23   54 1
    58   24   55 1
    59   24   56 1
    60   27   57 1
    61   27   58 1
    62   27   59 1
    63   28   60 1
    64   29   61 1
    65   32   62 1
    66   32   63 1
    67   32   64 1
    68   33   65 1
